alfuzosin
  Marvin  12020811012D          

 28 30  0  0  0  0            999 V2000
   -3.8694    1.2254    0.0000 C   0  0  0  0  0  0  0  0  0  0  0  0
   -4.6944    1.2254    0.0000 C   0  0  0  0  0  0  0  0  0  0  0  0
   -4.9494    0.4408    0.0000 C   0  0  0  0  0  0  0  0  0  0  0  0
   -4.2819   -0.0441    0.0000 O   0  0  0  0  0  0  0  0  0  0  0  0
   -3.6145    0.4408    0.0000 C   0  0  0  0  0  0  0  0  0  0  0  0
   -2.9001    0.0283    0.0000 C   0  0  0  0  0  0  0  0  0  0  0  0
   -2.1856    0.4408    0.0000 N   0  0  0  0  0  0  0  0  0  0  0  0
   -1.4711    0.0283    0.0000 C   0  0  0  0  0  0  0  0  0  0  0  0
   -0.7566    0.4408    0.0000 C   0  0  0  0  0  0  0  0  0  0  0  0
   -0.0422    0.0283    0.0000 C   0  0  0  0  0  0  0  0  0  0  0  0
    0.6723    0.4408    0.0000 N   0  0  0  0  0  0  0  0  0  0  0  0
    1.3868    0.0283    0.0000 C   0  0  0  0  0  0  0  0  0  0  0  0
    2.8158    0.0283    0.0000 C   0  0  0  0  0  0  0  0  0  0  0  0
    2.1013    0.4408    0.0000 N   0  0  0  0  0  0  0  0  0  0  0  0
    1.3868   -0.7967    0.0000 N   0  0  0  0  0  0  0  0  0  0  0  0
    2.1013   -1.2092    0.0000 C   0  0  0  0  0  0  0  0  0  0  0  0
    2.8158   -0.7967    0.0000 C   0  0  0  0  0  0  0  0  0  0  0  0
    3.5302   -1.2092    0.0000 C   0  0  0  0  0  0  0  0  0  0  0  0
    4.2447   -0.7967    0.0000 C   0  0  0  0  0  0  0  0  0  0  0  0
    4.2447    0.0283    0.0000 C   0  0  0  0  0  0  0  0  0  0  0  0
    3.5302    0.4408    0.0000 C   0  0  0  0  0  0  0  0  0  0  0  0
    4.9592    0.4408    0.0000 O   0  0  0  0  0  0  0  0  0  0  0  0
    4.9592   -1.2092    0.0000 O   0  0  0  0  0  0  0  0  0  0  0  0
   -2.9001   -0.7967    0.0000 O   0  0  0  0  0  0  0  0  0  0  0  0
    2.1013   -2.0342    0.0000 N   0  0  0  0  0  0  0  0  0  0  0  0
    5.6737    0.0283    0.0000 C   0  0  0  0  0  0  0  0  0  0  0  0
    5.6737   -0.7967    0.0000 C   0  0  0  0  0  0  0  0  0  0  0  0
    0.6723    1.2658    0.0000 C   0  0  0  0  0  0  0  0  0  0  0  0
  1  2  1  0  0  0  0
  1  5  1  0  0  0  0
  2  3  1  0  0  0  0
  3  4  1  0  0  0  0
  4  5  1  0  0  0  0
  5  6  1  0  0  0  0
  6  7  1  0  0  0  0
  7  8  1  0  0  0  0
  8  9  1  0  0  0  0
  9 10  1  0  0  0  0
 10 11  1  0  0  0  0
 11 12  1  0  0  0  0
 14 12  2  0  0  0  0
 12 15  1  0  0  0  0
 13 14  1  0  0  0  0
 13 17  2  0  0  0  0
 13 21  1  0  0  0  0
 15 16  2  0  0  0  0
 16 17  1  0  0  0  0
 17 18  1  0  0  0  0
 18 19  2  0  0  0  0
 19 20  1  0  0  0  0
 20 21  2  0  0  0  0
 20 22  1  0  0  0  0
 19 23  1  0  0  0  0
  6 24  2  0  0  0  0
 16 25  1  0  0  0  0
 22 26  1  0  0  0  0
 23 27  1  0  0  0  0
 11 28  1  0  0  0  0
M  END
> <ID>
CHEBI:51141

> <NAME>
alfuzosin

> <STAR>
3

> <IUPAC_NAME>
N-{3-[(4-amino-6,7-dimethoxyquinazolin-2-yl)(methyl)amino]propyl}tetrahydrofuran-2-carboxamide

> <INN>
alfuzosinum; alfuzosine; alfuzosina; alfuzosin

> <FORMULA>
C19H27N5O4

> <MASS>
389.44898

> <MONOISOTOPIC_MASS>
389.20630

> <CHARGE>
0

> <SMILES>
COc1cc2nc(nc(N)c2cc1OC)N(C)CCCNC(=O)C1CCCO1

> <INCHI>
InChI=1S/C19H27N5O4/c1-24(8-5-7-21-18(25)14-6-4-9-28-14)19-22-13-11-16(27-3)15(26-2)10-12(13)17(20)23-19/h10-11,14H,4-9H2,1-3H3,(H,21,25)(H2,20,22,23)

> <INCHIKEY>
WNMJYKCGWZFFKR-UHFFFAOYSA-N

> <CAS_REGISTRY_NUMBER>
81403-80-7

> <CHEMIDPLUS>
81403-80-7

> <DRUGBANK_ACCESSION>
DB00346

> <KEGG_DRUG_ACCESSION>
D07124

> <LINCS_ACCESSION>
LSM-1291

> <WIKIPEDIA_ACCESSION>
Alfuzosin
